* PSpice Model Editor - Version 17.2.0
*$
.model Dbreak D Is=1e-14 Cjo=.1pF Rs=20 BV=6.0V IBV=20mA
*$
